SUMMARY OF JOB INFORMATION
  STEP      INC     ATT  ITRS     TOT TIME     STEP TIME      INC TIME
     1          1     1     2  0.500000E-02  0.500000E-02  0.500000E-02
     1          2     1     2  0.100000E-01  0.100000E-01  0.500000E-02
     1          3     1     2  0.175000E-01  0.175000E-01  0.750000E-02
     1          4     1     2  0.287500E-01  0.287500E-01  0.112500E-01
     1          5     1     4  0.456250E-01  0.456250E-01  0.168750E-01
     1          6     1     5  0.706250E-01  0.706250E-01  0.250000E-01
     1          7     1     6  0.956250E-01  0.956250E-01  0.250000E-01
     1          8     1     4  0.120625E+00  0.120625E+00  0.250000E-01
     1          9     1     3  0.145625E+00  0.145625E+00  0.250000E-01
     1         10     1     3  0.170625E+00  0.170625E+00  0.250000E-01
     1         11     1     2  0.195625E+00  0.195625E+00  0.250000E-01
     1         12     1     2  0.220625E+00  0.220625E+00  0.250000E-01
     1         13     1     2  0.245625E+00  0.245625E+00  0.250000E-01
     1         14     1     2  0.270625E+00  0.270625E+00  0.250000E-01
     1         15     1     2  0.295625E+00  0.295625E+00  0.250000E-01
     1         16     1     2  0.320625E+00  0.320625E+00  0.250000E-01
     1         17     1     3  0.345625E+00  0.345625E+00  0.250000E-01
     1         18     1     2  0.370625E+00  0.370625E+00  0.250000E-01
     1         19     1     2  0.395625E+00  0.395625E+00  0.250000E-01
     1         20     1     2  0.420625E+00  0.420625E+00  0.250000E-01
     1         21     1     3  0.445625E+00  0.445625E+00  0.250000E-01
     1         22     1     4  0.470625E+00  0.470625E+00  0.250000E-01
     1         23     1U    4  0.470625E+00  0.470625E+00  0.250000E-01
     1         23     2     7  0.476875E+00  0.476875E+00  0.625000E-02
     1         24     1     4  0.483125E+00  0.483125E+00  0.625000E-02
     1         25     1     4  0.489375E+00  0.489375E+00  0.625000E-02
     1         26     1     4  0.498750E+00  0.498750E+00  0.937500E-02
     1         27     1     4  0.512813E+00  0.512813E+00  0.140625E-01
     1         28     1     6  0.533906E+00  0.533906E+00  0.210938E-01
     1         29     1     5  0.555000E+00  0.555000E+00  0.210938E-01
     1         30     1     4  0.576094E+00  0.576094E+00  0.210938E-01
     1         31     1     4  0.597188E+00  0.597188E+00  0.210938E-01
     1         32     1     3  0.622188E+00  0.622188E+00  0.250000E-01
     1         33     1     4  0.647188E+00  0.647188E+00  0.250000E-01
     1         34     1     4  0.672188E+00  0.672188E+00  0.250000E-01
     1         35     1     4  0.697188E+00  0.697188E+00  0.250000E-01
     1         36     1     4  0.722188E+00  0.722188E+00  0.250000E-01
     1         37     1     3  0.747188E+00  0.747188E+00  0.250000E-01
     1         38     1     3  0.772188E+00  0.772188E+00  0.250000E-01
     1         39     1     4  0.797188E+00  0.797188E+00  0.250000E-01
     1         40     1     3  0.822188E+00  0.822188E+00  0.250000E-01
     1         41     1     3  0.847188E+00  0.847188E+00  0.250000E-01
     1         42     1     4  0.872188E+00  0.872188E+00  0.250000E-01
     1         43     1     3  0.897188E+00  0.897188E+00  0.250000E-01
     1         44     1     4  0.922188E+00  0.922188E+00  0.250000E-01
     1         45     1     4  0.947188E+00  0.947188E+00  0.250000E-01
     1         46     1     4  0.972188E+00  0.972188E+00  0.250000E-01
     1         47     1     3  0.997188E+00  0.997188E+00  0.250000E-01
     1         48     1     2  0.100000E+01  0.100000E+01  0.281250E-02
