*Heading
 /workspaces/codespaces-blank/a992_web_coupon_mesh.inp
*NODE
1, 10.90625, -2.5, 0
2, 10.90625, 0, 0
3, 10.90625, 2.5, 0
4, 13.90625, -2.5, 0
5, 13.90625, 0, 0
6, 13.90625, 2.5, 0
7, 0, -4, 0
8, 24, -4, 0
9, 0, 4, 0
10, 24, 4, 0
11, 10.899721395368, -2.4274612614881, 0
12, 10.880345416197, -2.357253977717, 0
13, 10.848744822401, -2.2916346685539, 0
14, 10.805935283064, -2.232712392587, 0
15, 10.753292732005, -2.1823809602474, 0
16, 10.69250914413, -2.1422580651832, 0
17, 10.625538153965, -2.1136332902551, 0
18, 10.554532264238, -2.0974266592818, 0
19, 10.48177366267, -2.0941590667176, 0
20, 10.40960087058, -2.1039355356761, 0
** ... 7596 like lines cut
******* E L E M E N T S *************
*ELEMENT, type=CPS3, ELSET=Surface1
1, 3186, 6506, 4536
2, 2569, 6633, 2567
3, 4577, 4612, 3189
4, 4144, 4451, 4145
5, 4291, 6601, 4599
6, 2511, 7224, 3248
7, 3884, 4674, 3934
8, 5244, 5245, 2894
9, 476, 6860, 388
10, 566, 4397, 1495
11, 1052, 5097, 4113
12, 4104, 4932, 124
13, 4097, 4305, 3250
14, 4442, 7422, 5881
15, 3130, 6907, 2307
16, 4465, 4675, 4250
17, 1952, 5158, 5069
18, 4305, 4957, 3252
19, 4513, 6952, 512
20, 1991, 7278, 1988
** ... 14820 like lines cut
*ELSET,ELSET=PLATE
1, 2, 3, 4, 5, 6, 7, 8, 9, 10, 
11, 12, 13, 14, 15, 16, 17, 18, 19, 20, 
21, 22, 23, 24, 25, 26, 27, 28, 29, 30, 
31, 32, 33, 34, 35, 36, 37, 38, 39, 40, 
41, 42, 43, 44, 45, 46, 47, 48, 49, 50, 
51, 52, 53, 54, 55, 56, 57, 58, 59, 60, 
61, 62, 63, 64, 65, 66, 67, 68, 69, 70, 
71, 72, 73, 74, 75, 76, 77, 78, 79, 80, 
81, 82, 83, 84, 85, 86, 87, 88, 89, 90, 
91, 92, 93, 94, 95, 96, 97, 98, 99, 100, 
101, 102, 103, 104, 105, 106, 107, 108, 109, 110, 
111, 112, 113, 114, 115, 116, 117, 118, 119, 120, 
121, 122, 123, 124, 125, 126, 127, 128, 129, 130, 
131, 132, 133, 134, 135, 136, 137, 138, 139, 140, 
141, 142, 143, 144, 145, 146, 147, 148, 149, 150, 
151, 152, 153, 154, 155, 156, 157, 158, 159, 160, 
161, 162, 163, 164, 165, 166, 167, 168, 169, 170, 
171, 172, 173, 174, 175, 176, 177, 178, 179, 180, 
181, 182, 183, 184, 185, 186, 187, 188, 189, 190, 
191, 192, 193, 194, 195, 196, 197, 198, 199, 200, 
** ... 1464 like lines cut
*NSET,NSET=PLATE
1, 2, 3, 4, 5, 6, 7, 8, 9, 10, 
11, 12, 13, 14, 15, 16, 17, 18, 19, 20, 
21, 22, 23, 24, 25, 26, 27, 28, 29, 30, 
31, 32, 33, 34, 35, 36, 37, 38, 39, 40, 
41, 42, 43, 44, 45, 46, 47, 48, 49, 50, 
51, 52, 53, 54, 55, 56, 57, 58, 59, 60, 
61, 62, 63, 64, 65, 66, 67, 68, 69, 70, 
71, 72, 73, 74, 75, 76, 77, 78, 79, 80, 
81, 82, 83, 84, 85, 86, 87, 88, 89, 90, 
91, 92, 93, 94, 95, 96, 97, 98, 99, 100, 
101, 102, 103, 104, 105, 106, 107, 108, 109, 110, 
111, 112, 113, 114, 115, 116, 117, 118, 119, 120, 
121, 122, 123, 124, 125, 126, 127, 128, 129, 130, 
131, 132, 133, 134, 135, 136, 137, 138, 139, 140, 
141, 142, 143, 144, 145, 146, 147, 148, 149, 150, 
151, 152, 153, 154, 155, 156, 157, 158, 159, 160, 
161, 162, 163, 164, 165, 166, 167, 168, 169, 170, 
171, 172, 173, 174, 175, 176, 177, 178, 179, 180, 
181, 182, 183, 184, 185, 186, 187, 188, 189, 190, 
191, 192, 193, 194, 195, 196, 197, 198, 199, 200, 
** ... 742 like lines cut

**
** ----------------------------------------------------------------
** Added by make_a992_web_coupon.py
** Units: inch, kip, ksi
** This is a 2D plane-stress model of an A992 steel web plate.
** It predicts stress and PEEQ localization. It does not perform
** literal ductile fracture or automatic element deletion.
** ----------------------------------------------------------------
**
*ELSET, ELSET=EALL
1, 2, 3, 4, 5, 6, 7, 8, 9, 10, 11, 12, 13, 14, 15, 16
17, 18, 19, 20, 21, 22, 23, 24, 25, 26, 27, 28, 29, 30, 31, 32
33, 34, 35, 36, 37, 38, 39, 40, 41, 42, 43, 44, 45, 46, 47, 48
49, 50, 51, 52, 53, 54, 55, 56, 57, 58, 59, 60, 61, 62, 63, 64
65, 66, 67, 68, 69, 70, 71, 72, 73, 74, 75, 76, 77, 78, 79, 80
81, 82, 83, 84, 85, 86, 87, 88, 89, 90, 91, 92, 93, 94, 95, 96
97, 98, 99, 100, 101, 102, 103, 104, 105, 106, 107, 108, 109, 110, 111, 112
113, 114, 115, 116, 117, 118, 119, 120, 121, 122, 123, 124, 125, 126, 127, 128
129, 130, 131, 132, 133, 134, 135, 136, 137, 138, 139, 140, 141, 142, 143, 144
145, 146, 147, 148, 149, 150, 151, 152, 153, 154, 155, 156, 157, 158, 159, 160
161, 162, 163, 164, 165, 166, 167, 168, 169, 170, 171, 172, 173, 174, 175, 176
177, 178, 179, 180, 181, 182, 183, 184, 185, 186, 187, 188, 189, 190, 191, 192
193, 194, 195, 196, 197, 198, 199, 200, 201, 202, 203, 204, 205, 206, 207, 208
209, 210, 211, 212, 213, 214, 215, 216, 217, 218, 219, 220, 221, 222, 223, 224
225, 226, 227, 228, 229, 230, 231, 232, 233, 234, 235, 236, 237, 238, 239, 240
241, 242, 243, 244, 245, 246, 247, 248, 249, 250, 251, 252, 253, 254, 255, 256
257, 258, 259, 260, 261, 262, 263, 264, 265, 266, 267, 268, 269, 270, 271, 272
273, 274, 275, 276, 277, 278, 279, 280, 281, 282, 283, 284, 285, 286, 287, 288
289, 290, 291, 292, 293, 294, 295, 296, 297, 298, 299, 300, 301, 302, 303, 304
305, 306, 307, 308, 309, 310, 311, 312, 313, 314, 315, 316, 317, 318, 319, 320
** ... 908 like lines cut
*NSET, NSET=FIXED_EDGE
7, 9, 287, 288, 289, 290, 291, 292, 293, 294, 295, 296, 297, 298, 299, 300
301, 302, 303, 304, 305, 306, 307, 308
*NSET, NSET=LOADED_EDGE
8, 10, 309, 310, 311, 312, 313, 314, 315, 316, 317, 318, 319, 320, 321, 322
323, 324, 325, 326, 327, 328, 329, 330
**
*MATERIAL, NAME=A992_IDEALIZED
*ELASTIC
29000, 0.3
*PLASTIC
50, 0
55, 0.01
60, 0.05
65, 0.12
70, 0.18
**
*SOLID SECTION, ELSET=EALL, MATERIAL=A992_IDEALIZED
0.3
**
*STEP, NAME=TENSION, NLGEOM=YES, INC=300
*STATIC
0.005, 1.0, 1e-8, 0.025
**
** Left end fixed. Right end gripped and pulled in the x direction.
** U2 on loaded edge is restrained to mimic a flat grip and improve stability.
*BOUNDARY
FIXED_EDGE, 1, 1, 0.0
FIXED_EDGE, 2, 2, 0.0
FIXED_EDGE, 3, 3, 0.0
LOADED_EDGE, 1, 1, 0.6
LOADED_EDGE, 2, 2, 0.0
LOADED_EDGE, 3, 3, 0.0
**
*NODE FILE
U, RF
*EL FILE
S, E, PE, PEEQ
**
** Reaction output. The total x-reaction on LOADED_EDGE is the applied tensile force.
*NODE PRINT, NSET=LOADED_EDGE, TOTALS=YES
RF
*END STEP
