SUMMARY OF JOB INFORMATION
  STEP      INC     ATT  ITRS     TOT TIME     STEP TIME      INC TIME
     1          1     1     2  0.500000E-02  0.500000E-02  0.500000E-02
     1          2     1     3  0.100000E-01  0.100000E-01  0.500000E-02
     1          3     1     3  0.175000E-01  0.175000E-01  0.750000E-02
     1          4     1     4  0.287500E-01  0.287500E-01  0.112500E-01
     1          5     1     4  0.456250E-01  0.456250E-01  0.168750E-01
     1          6     1     4  0.706250E-01  0.706250E-01  0.250000E-01
     1          7     1     3  0.956250E-01  0.956250E-01  0.250000E-01
     1          8     1     3  0.120625E+00  0.120625E+00  0.250000E-01
     1          9     1     2  0.145625E+00  0.145625E+00  0.250000E-01
     1         10     1     2  0.170625E+00  0.170625E+00  0.250000E-01
     1         11     1     3  0.195625E+00  0.195625E+00  0.250000E-01
     1         12     1     2  0.220625E+00  0.220625E+00  0.250000E-01
     1         13     1     2  0.245625E+00  0.245625E+00  0.250000E-01
     1         14     1     2  0.270625E+00  0.270625E+00  0.250000E-01
     1         15     1     2  0.295625E+00  0.295625E+00  0.250000E-01
     1         16     1     2  0.320625E+00  0.320625E+00  0.250000E-01
     1         17     1     2  0.345625E+00  0.345625E+00  0.250000E-01
     1         18     1     2  0.370625E+00  0.370625E+00  0.250000E-01
     1         19     1     2  0.395625E+00  0.395625E+00  0.250000E-01
     1         20     1     2  0.420625E+00  0.420625E+00  0.250000E-01
     1         21     1     2  0.445625E+00  0.445625E+00  0.250000E-01
     1         22     1     2  0.470625E+00  0.470625E+00  0.250000E-01
     1         23     1     2  0.495625E+00  0.495625E+00  0.250000E-01
     1         24     1     2  0.520625E+00  0.520625E+00  0.250000E-01
     1         25     1     2  0.545625E+00  0.545625E+00  0.250000E-01
     1         26     1     2  0.570625E+00  0.570625E+00  0.250000E-01
     1         27     1     2  0.595625E+00  0.595625E+00  0.250000E-01
     1         28     1     2  0.620625E+00  0.620625E+00  0.250000E-01
     1         29     1     2  0.645625E+00  0.645625E+00  0.250000E-01
     1         30     1     2  0.670625E+00  0.670625E+00  0.250000E-01
     1         31     1     2  0.695625E+00  0.695625E+00  0.250000E-01
     1         32     1     2  0.720625E+00  0.720625E+00  0.250000E-01
     1         33     1     2  0.745625E+00  0.745625E+00  0.250000E-01
     1         34     1     2  0.770625E+00  0.770625E+00  0.250000E-01
     1         35     1     2  0.795625E+00  0.795625E+00  0.250000E-01
     1         36     1     2  0.820625E+00  0.820625E+00  0.250000E-01
     1         37     1     2  0.845625E+00  0.845625E+00  0.250000E-01
     1         38     1     2  0.870625E+00  0.870625E+00  0.250000E-01
     1         39     1     2  0.895625E+00  0.895625E+00  0.250000E-01
     1         40     1     2  0.920625E+00  0.920625E+00  0.250000E-01
     1         41     1     2  0.945625E+00  0.945625E+00  0.250000E-01
     1         42     1     2  0.970625E+00  0.970625E+00  0.250000E-01
     1         43     1     2  0.995625E+00  0.995625E+00  0.250000E-01
     1         44     1     2  0.100000E+01  0.100000E+01  0.437500E-02
