*Heading
 /workspaces/codespaces-blank/prepomax_block_shear_demo/block_shear_demo_mesh.inp
*NODE
1, 1.75625, -1.75, 0
2, 1.75625, 0, 0
3, 1.75625, 1.75, 0
4, 3.75625, -1.75, 0
5, 3.75625, 0, 0
6, 3.75625, 1.75, 0
7, 0, -3, 0
8, 10, -3, 0
9, 0, 3, 0
10, 10, 3, 0
11, 1.7542937952106, -1.7101805367411, 0
12, 1.7484440201638, -1.6707445566809, 0
13, 1.7387570113912, -1.6320718498654, 0
14, 1.7253260600827, -1.5945348556017, 0
15, 1.7082805136415, -1.5584950756644, 0
16, 1.6877845299979, -1.5242995928358, 0
17, 1.6640354966786, -1.4922777283085, 0
18, 1.637262129857, -1.462737870143, 0
19, 1.6077222716915, -1.4359645033214, 0
20, 1.5757004071642, -1.4122154700021, 0
** ... 11903 like lines cut
******* E L E M E N T S *************
*ELEMENT, type=CPS3, ELSET=Surface1
1, 993, 7632, 990
2, 3858, 7060, 6755
3, 450, 7526, 449
4, 5919, 8069, 5924
5, 3375, 7584, 780
6, 7853, 9925, 1982
7, 8043, 11313, 6439
8, 7547, 11444, 11041
9, 8294, 9579, 6368
10, 6734, 7907, 1036
11, 5822, 11075, 6803
12, 122, 7213, 7134
13, 4437, 7697, 6888
14, 8030, 11043, 5165
15, 6061, 7804, 7229
16, 6865, 11118, 2529
17, 7053, 11386, 3046
18, 2521, 11236, 6812
19, 6481, 10248, 7994
20, 727, 8005, 7438
** ... 23219 like lines cut
*ELSET,ELSET=PLATE
1, 2, 3, 4, 5, 6, 7, 8, 9, 10, 
11, 12, 13, 14, 15, 16, 17, 18, 19, 20, 
21, 22, 23, 24, 25, 26, 27, 28, 29, 30, 
31, 32, 33, 34, 35, 36, 37, 38, 39, 40, 
41, 42, 43, 44, 45, 46, 47, 48, 49, 50, 
51, 52, 53, 54, 55, 56, 57, 58, 59, 60, 
61, 62, 63, 64, 65, 66, 67, 68, 69, 70, 
71, 72, 73, 74, 75, 76, 77, 78, 79, 80, 
81, 82, 83, 84, 85, 86, 87, 88, 89, 90, 
91, 92, 93, 94, 95, 96, 97, 98, 99, 100, 
101, 102, 103, 104, 105, 106, 107, 108, 109, 110, 
111, 112, 113, 114, 115, 116, 117, 118, 119, 120, 
121, 122, 123, 124, 125, 126, 127, 128, 129, 130, 
131, 132, 133, 134, 135, 136, 137, 138, 139, 140, 
141, 142, 143, 144, 145, 146, 147, 148, 149, 150, 
151, 152, 153, 154, 155, 156, 157, 158, 159, 160, 
161, 162, 163, 164, 165, 166, 167, 168, 169, 170, 
171, 172, 173, 174, 175, 176, 177, 178, 179, 180, 
181, 182, 183, 184, 185, 186, 187, 188, 189, 190, 
191, 192, 193, 194, 195, 196, 197, 198, 199, 200, 
** ... 2304 like lines cut
*NSET,NSET=PLATE
1, 2, 3, 4, 5, 6, 7, 8, 9, 10, 
11, 12, 13, 14, 15, 16, 17, 18, 19, 20, 
21, 22, 23, 24, 25, 26, 27, 28, 29, 30, 
31, 32, 33, 34, 35, 36, 37, 38, 39, 40, 
41, 42, 43, 44, 45, 46, 47, 48, 49, 50, 
51, 52, 53, 54, 55, 56, 57, 58, 59, 60, 
61, 62, 63, 64, 65, 66, 67, 68, 69, 70, 
71, 72, 73, 74, 75, 76, 77, 78, 79, 80, 
81, 82, 83, 84, 85, 86, 87, 88, 89, 90, 
91, 92, 93, 94, 95, 96, 97, 98, 99, 100, 
101, 102, 103, 104, 105, 106, 107, 108, 109, 110, 
111, 112, 113, 114, 115, 116, 117, 118, 119, 120, 
121, 122, 123, 124, 125, 126, 127, 128, 129, 130, 
131, 132, 133, 134, 135, 136, 137, 138, 139, 140, 
141, 142, 143, 144, 145, 146, 147, 148, 149, 150, 
151, 152, 153, 154, 155, 156, 157, 158, 159, 160, 
161, 162, 163, 164, 165, 166, 167, 168, 169, 170, 
171, 172, 173, 174, 175, 176, 177, 178, 179, 180, 
181, 182, 183, 184, 185, 186, 187, 188, 189, 190, 
191, 192, 193, 194, 195, 196, 197, 198, 199, 200, 
** ... 1173 like lines cut

**
** ----------------------------------------------------------------
** Added by make_block_shear_demo.py
** Units: inch, kip, ksi
**
** This is a 2D plane-stress block-shear proxy model.
** Right edge is pulled in tension.
** Bearing arcs on the holes are restrained to mimic bolts/gusset support.
** It predicts stress and PEEQ localization. It does not perform
** literal ductile fracture or automatic element deletion.
**
** Approximate block-shear guide geometry:
**   inner bolt column x             = 3.35 in
**   top shear path y                = 2.15625 in
**   bottom shear path y             = -2.15625 in
**   block height                    = 4.3125 in
**   each gross shear length         = 3.35 in
**   total gross shear area proxy    = 2.5125 in^2
**   gross tension area proxy        = 1.61719 in^2
**   simple net tension area proxy   = 0.703125 in^2
** ----------------------------------------------------------------
**
*ELSET, ELSET=EALL
1, 2, 3, 4, 5, 6, 7, 8, 9, 10, 11, 12, 13, 14, 15, 16
17, 18, 19, 20, 21, 22, 23, 24, 25, 26, 27, 28, 29, 30, 31, 32
33, 34, 35, 36, 37, 38, 39, 40, 41, 42, 43, 44, 45, 46, 47, 48
49, 50, 51, 52, 53, 54, 55, 56, 57, 58, 59, 60, 61, 62, 63, 64
65, 66, 67, 68, 69, 70, 71, 72, 73, 74, 75, 76, 77, 78, 79, 80
81, 82, 83, 84, 85, 86, 87, 88, 89, 90, 91, 92, 93, 94, 95, 96
97, 98, 99, 100, 101, 102, 103, 104, 105, 106, 107, 108, 109, 110, 111, 112
113, 114, 115, 116, 117, 118, 119, 120, 121, 122, 123, 124, 125, 126, 127, 128
129, 130, 131, 132, 133, 134, 135, 136, 137, 138, 139, 140, 141, 142, 143, 144
145, 146, 147, 148, 149, 150, 151, 152, 153, 154, 155, 156, 157, 158, 159, 160
161, 162, 163, 164, 165, 166, 167, 168, 169, 170, 171, 172, 173, 174, 175, 176
177, 178, 179, 180, 181, 182, 183, 184, 185, 186, 187, 188, 189, 190, 191, 192
193, 194, 195, 196, 197, 198, 199, 200, 201, 202, 203, 204, 205, 206, 207, 208
209, 210, 211, 212, 213, 214, 215, 216, 217, 218, 219, 220, 221, 222, 223, 224
225, 226, 227, 228, 229, 230, 231, 232, 233, 234, 235, 236, 237, 238, 239, 240
241, 242, 243, 244, 245, 246, 247, 248, 249, 250, 251, 252, 253, 254, 255, 256
257, 258, 259, 260, 261, 262, 263, 264, 265, 266, 267, 268, 269, 270, 271, 272
273, 274, 275, 276, 277, 278, 279, 280, 281, 282, 283, 284, 285, 286, 287, 288
289, 290, 291, 292, 293, 294, 295, 296, 297, 298, 299, 300, 301, 302, 303, 304
305, 306, 307, 308, 309, 310, 311, 312, 313, 314, 315, 316, 317, 318, 319, 320
** ... 1433 like lines cut
*NSET, NSET=RIGHT_LOADED_EDGE
8, 10, 538, 539, 540, 541, 542, 543, 544, 545, 546, 547, 548, 549, 550, 551
552, 553, 554, 555, 556, 557, 558, 559, 560
*NSET, NSET=LEFT_FREE_EDGE
7, 9, 446, 447, 448, 449, 450, 451, 452, 453, 454, 455, 456, 457, 458, 459
460, 461, 462, 463, 464, 465, 466, 467, 468, 469, 470, 471, 472, 473, 474, 475
476, 477, 478, 479, 480, 481, 482, 483, 484, 485, 486, 487, 488, 489, 490, 491
492, 493, 494, 495, 496, 497, 498, 499, 500, 501, 502, 503, 504, 505, 506, 507
508, 509, 510, 511, 512, 513, 514, 515, 516, 517, 518, 519, 520, 521, 522, 523
524, 525, 526, 527, 528, 529, 530, 531, 532, 533, 534, 535, 536, 537
*NSET, NSET=HOLE_BOUNDARY
1, 2, 3, 4, 5, 6, 11, 12, 13, 14, 15, 16, 17, 18, 19, 20
21, 22, 23, 24, 25, 26, 27, 28, 29, 30, 31, 32, 33, 34, 35, 36
37, 38, 39, 40, 41, 42, 43, 44, 45, 46, 47, 48, 49, 50, 51, 52
53, 54, 55, 56, 57, 58, 59, 60, 61, 62, 63, 64, 65, 66, 67, 68
69, 70, 71, 72, 73, 74, 75, 76, 77, 78, 79, 80, 81, 82, 83, 84
85, 86, 87, 88, 89, 90, 91, 92, 93, 94, 95, 96, 97, 98, 99, 100
101, 102, 103, 104, 105, 106, 107, 108, 109, 110, 111, 112, 113, 114, 115, 116
117, 118, 119, 120, 121, 122, 123, 124, 125, 126, 127, 128, 129, 130, 131, 132
133, 134, 135, 136, 137, 138, 139, 140, 141, 142, 143, 144, 145, 146, 147, 148
149, 150, 151, 152, 153, 154, 155, 156, 157, 158, 159, 160, 161, 162, 163, 164
165, 166, 167, 168, 169, 170, 171, 172, 173, 174, 175, 176, 177, 178, 179, 180
181, 182, 183, 184, 185, 186, 187, 188, 189, 190, 191, 192, 193, 194, 195, 196
197, 198, 199, 200, 201, 202, 203, 204, 205, 206, 207, 208, 209, 210, 211, 212
213, 214, 215, 216, 217, 218, 219, 220, 221, 222, 223, 224, 225, 226, 227, 228
229, 230, 231, 232, 233, 234, 235, 236, 237, 238, 239, 240, 241, 242, 243, 244
245, 246, 247, 248, 249, 250, 251, 252, 253, 254, 255, 256, 257, 258, 259, 260
261, 262, 263, 264, 265, 266, 267, 268, 269, 270, 271, 272, 273, 274, 275, 276
277, 278, 279, 280, 281, 282, 283, 284, 285, 286, 287, 288, 289, 290, 291, 292
293, 294, 295, 296, 297, 298, 299, 300, 301, 302, 303, 304, 305, 306, 307, 308
309, 310, 311, 312, 313, 314, 315, 316, 317, 318, 319, 320, 321, 322, 323, 324
** ... 10 like lines cut
*NSET, NSET=BEARING_ARCS
33, 34, 35, 36, 37, 38, 39, 40, 41, 42, 43, 44, 45, 46, 47, 48
49, 50, 51, 96, 97, 98, 99, 100, 101, 102, 103, 104, 105, 106, 107, 108
109, 110, 111, 112, 113, 114, 159, 160, 161, 162, 163, 164, 165, 166, 167, 168
169, 170, 171, 172, 173, 174, 175, 176, 177, 222, 223, 224, 225, 226, 227, 228
229, 230, 231, 232, 233, 234, 235, 236, 237, 238, 239, 240, 285, 286, 287, 288
289, 290, 291, 292, 293, 294, 295, 296, 297, 298, 299, 300, 301, 302, 303, 348
349, 350, 351, 352, 353, 354, 355, 356, 357, 358, 359, 360, 361, 362, 363, 364
365, 366, 637, 1221, 2090, 7150, 7283, 7307, 7414, 10344, 10521, 10570, 10578, 10692, 10707, 10746
10751, 10915, 11175, 11271, 11370, 11373, 11415, 11749
*NSET, NSET=TOP_SHEAR_PATH_GUIDE
147, 148, 149, 150, 151, 152, 153, 154, 155, 156, 157, 340, 341, 342, 343, 344
345, 346, 458, 645, 647, 659, 661, 664, 673, 685, 697, 701, 703, 1910, 1911, 1912
1913, 1914, 1915, 1940, 1941, 1942, 1945, 1946, 1986, 1987, 2898, 3182, 3333, 3334, 3433, 3434
3435, 3436, 3437, 3547, 3548, 3549, 3714, 3968, 3969, 3970, 3971, 3986, 3987, 3994, 4057, 4058
4135, 4331, 4407, 4408, 4409, 4410, 4411, 4527, 4655, 4741, 4742, 4857, 5031, 5206, 5221, 5372
5373, 5374, 5375, 5377, 5378, 5479, 5591, 5718, 5937, 5938, 5939, 5940, 5941, 5942, 5943, 5944
5983, 5984, 5985, 6156, 6460, 6680, 6681, 6682, 6683, 6684, 6685, 6686, 6687, 6697, 6778, 6798
6801, 6989, 7029, 7042, 7312, 7316, 7331, 7332, 7347, 7351, 7352, 7365, 7394, 7415, 7420, 7421
7426, 7427, 7467, 7695, 7716, 7722, 7773, 7806, 7817, 7818, 7819, 7861, 7899, 7968, 8005, 8006
8010, 8063, 8253, 8876, 8901, 8905, 8906, 8907, 8944, 9499, 9583, 9752, 9946, 9996, 10057, 10121
10195, 10382, 10483, 10545, 10683, 10973, 11040, 11068, 11155, 11183, 11238, 11288, 11306, 11395, 11440, 11457
11534, 11564, 11574, 11587, 11599, 11681, 11697, 11754, 11768, 11795, 11816, 11818, 11861
*NSET, NSET=BOTTOM_SHEAR_PATH_GUIDE
53, 54, 55, 56, 57, 58, 59, 60, 61, 62, 63, 242, 243, 244, 245, 246
247, 248, 525, 646, 648, 658, 662, 663, 672, 686, 700, 702, 704, 1633, 1634, 1844
1845, 1846, 1847, 1885, 1886, 1887, 2104, 2392, 2417, 2946, 2947, 3194, 3195, 3196, 3587, 3588
3589, 3590, 3591, 3592, 3605, 4070, 4083, 4391, 4392, 4393, 4394, 4395, 4647, 4648, 4695, 4774
4914, 4915, 4916, 4917, 4918, 4919, 4921, 4922, 4923, 4924, 5038, 5040, 5043, 5109, 5173, 5174
5175, 5177, 5178, 5179, 5180, 5181, 5182, 5183, 5184, 5220, 5391, 5530, 5531, 5623, 5674, 5871
5913, 6071, 6077, 6091, 6314, 6399, 6400, 6517, 6620, 6621, 6715, 6724, 6886, 6955, 6956, 7002
7003, 7005, 7006, 7105, 7112, 7113, 7285, 7286, 7305, 7326, 7355, 7366, 7386, 7597, 7607, 7608
7731, 7757, 7839, 7840, 7841, 7842, 7849, 7860, 7950, 7956, 8103, 8181, 8245, 8283, 8801, 8856
8898, 8951, 9254, 9307, 9508, 9509, 9532, 9730, 9735, 9844, 9939, 9976, 10179, 10191, 10204, 10242
10269, 10345, 10394, 10424, 10508, 10623, 10689, 10756, 10789, 10847, 10899, 10932, 10939, 11005, 11007, 11141
11201, 11237, 11243, 11311, 11393, 11394, 11422, 11537, 11554, 11615, 11627, 11641, 11643, 11646, 11665, 11837
*NSET, NSET=TENSION_PLANE_GUIDE
214, 215, 216, 246, 247, 248, 277, 278, 279, 309, 310, 311, 340, 341, 342, 372
373, 374, 881, 882, 888, 889, 890, 891, 892, 893, 1267, 1401, 1402, 1403, 1404, 1405
1406, 1443, 1533, 1709, 2510, 2511, 2512, 2513, 2514, 3026, 3027, 3028, 3029, 3030, 3031, 3053
3057, 3336, 3531, 3722, 3723, 3724, 3725, 3726, 3727, 3732, 3850, 3879, 3880, 3951, 3952, 3953
3954, 4563, 4809, 4978, 5114, 5481, 6127, 6217, 6218, 6219, 6220, 6221, 6222, 6283, 6316, 6317
6318, 6335, 6336, 6421, 6776, 6777, 6828, 6829, 6830, 6831, 6832, 6833, 6843, 6952, 6953, 6987
7101, 7102, 7103, 7116, 7138, 7247, 7249, 7250, 7251, 7252, 7253, 7533, 7645, 7699, 7725, 7872
8100, 8115, 8189, 8190, 8195, 8229, 8230, 8558, 8884, 8893, 9282, 9283, 9365, 9487, 9527, 9533
9586, 9589, 9613, 9620, 9655, 9677, 9722, 9772, 9795, 9814, 9847, 9877, 9894, 9958, 10058, 10122
10234, 10556, 10701, 10805, 10859, 10861, 10865, 10878, 10923, 10985, 11083, 11173, 11197, 11215, 11220, 11226
11299, 11337, 11401, 11445, 11482, 11499, 11739, 11760, 11828, 11857
**
*MATERIAL, NAME=A992_IDEALIZED
*ELASTIC
29000, 0.3
*PLASTIC
50, 0
55, 0.01
60, 0.05
65, 0.12
70, 0.18
**
*SOLID SECTION, ELSET=EALL, MATERIAL=A992_IDEALIZED
0.375
**
*STEP, NAME=BLOCK_SHEAR, NLGEOM=YES, INC=350
*STATIC
0.0025, 1.0, 1e-8, 0.020
**
** Bolt/gusset proxy:
** The left bearing arcs of the holes are restrained in U1.
** U2 is left free so the plate can deform around the bolts.
*BOUNDARY
BEARING_ARCS, 1, 1, 0.0
BEARING_ARCS, 3, 3, 0.0
**
** Right edge is displacement-controlled in tension.
** U2 is fixed on the gripped edge to keep the grip flat and stable.
*BOUNDARY
RIGHT_LOADED_EDGE, 1, 1, 0.28
RIGHT_LOADED_EDGE, 2, 2, 0.0
RIGHT_LOADED_EDGE, 3, 3, 0.0
**
*NODE FILE
U, RF
*EL FILE
S, E, PE, PEEQ
**
** Reaction output.
** Total x-reaction on RIGHT_LOADED_EDGE estimates applied tensile load.
** Total x-reaction on BEARING_ARCS estimates bolt-group reaction.
*NODE PRINT, NSET=RIGHT_LOADED_EDGE, TOTALS=YES
RF
*NODE PRINT, NSET=BEARING_ARCS, TOTALS=YES
RF
*END STEP
