SUMMARY OF JOB INFORMATION
  STEP      INC     ATT  ITRS     TOT TIME     STEP TIME      INC TIME
     1          1     1     2  0.250000E-02  0.250000E-02  0.250000E-02
     1          2     1     2  0.500000E-02  0.500000E-02  0.250000E-02
     1          3     1     2  0.875000E-02  0.875000E-02  0.375000E-02
     1          4     1     3  0.143750E-01  0.143750E-01  0.562500E-02
     1          5     1     3  0.228125E-01  0.228125E-01  0.843750E-02
     1          6     1     4  0.354688E-01  0.354688E-01  0.126563E-01
     1          7     1     4  0.544531E-01  0.544531E-01  0.189844E-01
     1          8     1     5  0.744531E-01  0.744531E-01  0.200000E-01
     1          9     1     3  0.944531E-01  0.944531E-01  0.200000E-01
     1         10     1     3  0.114453E+00  0.114453E+00  0.200000E-01
     1         11     1     3  0.134453E+00  0.134453E+00  0.200000E-01
     1         12     1     2  0.154453E+00  0.154453E+00  0.200000E-01
     1         13     1     3  0.174453E+00  0.174453E+00  0.200000E-01
     1         14     1     2  0.194453E+00  0.194453E+00  0.200000E-01
     1         15     1     2  0.214453E+00  0.214453E+00  0.200000E-01
     1         16     1     2  0.234453E+00  0.234453E+00  0.200000E-01
     1         17     1     2  0.254453E+00  0.254453E+00  0.200000E-01
     1         18     1     2  0.274453E+00  0.274453E+00  0.200000E-01
     1         19     1     2  0.294453E+00  0.294453E+00  0.200000E-01
     1         20     1     2  0.314453E+00  0.314453E+00  0.200000E-01
     1         21     1     2  0.334453E+00  0.334453E+00  0.200000E-01
     1         22     1     2  0.354453E+00  0.354453E+00  0.200000E-01
     1         23     1     3  0.374453E+00  0.374453E+00  0.200000E-01
     1         24     1     3  0.394453E+00  0.394453E+00  0.200000E-01
     1         25     1     3  0.414453E+00  0.414453E+00  0.200000E-01
     1         26     1     3  0.434453E+00  0.434453E+00  0.200000E-01
     1         27     1     3  0.454453E+00  0.454453E+00  0.200000E-01
     1         28     1     3  0.474453E+00  0.474453E+00  0.200000E-01
     1         29     1     3  0.494453E+00  0.494453E+00  0.200000E-01
     1         30     1     3  0.514453E+00  0.514453E+00  0.200000E-01
     1         31     1     3  0.534453E+00  0.534453E+00  0.200000E-01
     1         32     1     3  0.554453E+00  0.554453E+00  0.200000E-01
     1         33     1     3  0.574453E+00  0.574453E+00  0.200000E-01
     1         34     1     2  0.594453E+00  0.594453E+00  0.200000E-01
     1         35     1     3  0.614453E+00  0.614453E+00  0.200000E-01
     1         36     1     3  0.634453E+00  0.634453E+00  0.200000E-01
     1         37     1     2  0.654453E+00  0.654453E+00  0.200000E-01
     1         38     1     3  0.674453E+00  0.674453E+00  0.200000E-01
     1         39     1     3  0.694453E+00  0.694453E+00  0.200000E-01
     1         40     1     2  0.714453E+00  0.714453E+00  0.200000E-01
     1         41     1     2  0.734453E+00  0.734453E+00  0.200000E-01
     1         42     1     3  0.754453E+00  0.754453E+00  0.200000E-01
     1         43     1     3  0.774453E+00  0.774453E+00  0.200000E-01
     1         44     1     3  0.794453E+00  0.794453E+00  0.200000E-01
     1         45     1     2  0.814453E+00  0.814453E+00  0.200000E-01
     1         46     1     3  0.834453E+00  0.834453E+00  0.200000E-01
     1         47     1     3  0.854453E+00  0.854453E+00  0.200000E-01
     1         48     1     3  0.874453E+00  0.874453E+00  0.200000E-01
     1         49     1     3  0.894453E+00  0.894453E+00  0.200000E-01
     1         50     1     3  0.914453E+00  0.914453E+00  0.200000E-01
     1         51     1     3  0.934453E+00  0.934453E+00  0.200000E-01
     1         52     1     3  0.954453E+00  0.954453E+00  0.200000E-01
     1         53     1     3  0.974453E+00  0.974453E+00  0.200000E-01
     1         54     1     2  0.994453E+00  0.994453E+00  0.200000E-01
     1         55     1     2  0.100000E+01  0.100000E+01  0.554687E-02
