**
** W-section lateral-torsional buckling demo
** Generated by make_ltb_wsection_demo.py
** Units: inch, kip, ksi
** This is an imperfect nonlinear static shell model, not a code design check.
**
** Length = 240 in
** Depth = 18 in
** Flange width = 6.5 in
** Flange thickness = 0.5 in
** Web thickness = 0.3 in
** Twist imperfection amplitude = 0.02 rad
** Lateral imperfection amplitude = 0.1 in
**
*NODE
1, 0.00000000, -3.25000000, 8.75000000
2, 0.00000000, -2.70833333, 8.75000000
3, 0.00000000, -2.16666667, 8.75000000
4, 0.00000000, -1.62500000, 8.75000000
5, 0.00000000, -1.08333333, 8.75000000
6, 0.00000000, -0.54166667, 8.75000000
7, 0.00000000, 0.00000000, 8.75000000
8, 0.00000000, 0.54166667, 8.75000000
9, 0.00000000, 1.08333333, 8.75000000
10, 0.00000000, 1.62500000, 8.75000000
11, 0.00000000, 2.16666667, 8.75000000
12, 0.00000000, 2.70833333, 8.75000000
13, 0.00000000, 3.25000000, 8.75000000
14, 3.00000000, -3.25294348, 8.74744541
15, 3.00000000, -2.71127698, 8.74787073
16, 3.00000000, -2.16961048, 8.74829604
17, 3.00000000, -1.62794398, 8.74872136
18, 3.00000000, -1.08627748, 8.74914667
19, 3.00000000, -0.54461099, 8.74957199
20, 3.00000000, -0.00294449, 8.74999730
** ... 3301 like lines cut
*ELEMENT, TYPE=S4, ELSET=TOP_FLANGE
1, 1, 14, 15, 2
2, 2, 15, 16, 3
3, 3, 16, 17, 4
4, 4, 17, 18, 5
5, 5, 18, 19, 6
6, 6, 19, 20, 7
7, 7, 20, 21, 8
8, 8, 21, 22, 9
9, 9, 22, 23, 10
10, 10, 23, 24, 11
11, 11, 24, 25, 12
12, 12, 25, 26, 13
13, 14, 27, 28, 15
14, 15, 28, 29, 16
15, 16, 29, 30, 17
16, 17, 30, 31, 18
17, 18, 31, 32, 19
18, 19, 32, 33, 20
19, 20, 33, 34, 21
20, 21, 34, 35, 22
** ... 940 like lines cut
*ELEMENT, TYPE=S4, ELSET=BOTTOM_FLANGE
961, 1054, 1055, 1068, 1067
962, 1055, 1056, 1069, 1068
963, 1056, 1057, 1070, 1069
964, 1057, 1058, 1071, 1070
965, 1058, 1059, 1072, 1071
966, 1059, 1060, 1073, 1072
967, 1060, 1061, 1074, 1073
968, 1061, 1062, 1075, 1074
969, 1062, 1063, 1076, 1075
970, 1063, 1064, 1077, 1076
971, 1064, 1065, 1078, 1077
972, 1065, 1066, 1079, 1078
973, 1067, 1068, 1081, 1080
974, 1068, 1069, 1082, 1081
975, 1069, 1070, 1083, 1082
976, 1070, 1071, 1084, 1083
977, 1071, 1072, 1085, 1084
978, 1072, 1073, 1086, 1085
979, 1073, 1074, 1087, 1086
980, 1074, 1075, 1088, 1087
** ... 940 like lines cut
*ELEMENT, TYPE=S4, ELSET=WEB
1921, 1060, 1073, 2122, 2107
1922, 2107, 2122, 2123, 2108
1923, 2108, 2123, 2124, 2109
1924, 2109, 2124, 2125, 2110
1925, 2110, 2125, 2126, 2111
1926, 2111, 2126, 2127, 2112
1927, 2112, 2127, 2128, 2113
1928, 2113, 2128, 2129, 2114
1929, 2114, 2129, 2130, 2115
1930, 2115, 2130, 2131, 2116
1931, 2116, 2131, 2132, 2117
1932, 2117, 2132, 2133, 2118
1933, 2118, 2133, 2134, 2119
1934, 2119, 2134, 2135, 2120
1935, 2120, 2135, 2136, 2121
1936, 2121, 2136, 20, 7
1937, 1073, 1086, 2137, 2122
1938, 2122, 2137, 2138, 2123
1939, 2123, 2138, 2139, 2124
1940, 2124, 2139, 2140, 2125
** ... 1260 like lines cut
*ELSET, ELSET=FLANGES
1, 2, 3, 4, 5, 6, 7, 8, 9, 10, 11, 12, 13, 14, 15, 16
17, 18, 19, 20, 21, 22, 23, 24, 25, 26, 27, 28, 29, 30, 31, 32
33, 34, 35, 36, 37, 38, 39, 40, 41, 42, 43, 44, 45, 46, 47, 48
49, 50, 51, 52, 53, 54, 55, 56, 57, 58, 59, 60, 61, 62, 63, 64
65, 66, 67, 68, 69, 70, 71, 72, 73, 74, 75, 76, 77, 78, 79, 80
81, 82, 83, 84, 85, 86, 87, 88, 89, 90, 91, 92, 93, 94, 95, 96
97, 98, 99, 100, 101, 102, 103, 104, 105, 106, 107, 108, 109, 110, 111, 112
113, 114, 115, 116, 117, 118, 119, 120, 121, 122, 123, 124, 125, 126, 127, 128
129, 130, 131, 132, 133, 134, 135, 136, 137, 138, 139, 140, 141, 142, 143, 144
145, 146, 147, 148, 149, 150, 151, 152, 153, 154, 155, 156, 157, 158, 159, 160
161, 162, 163, 164, 165, 166, 167, 168, 169, 170, 171, 172, 173, 174, 175, 176
177, 178, 179, 180, 181, 182, 183, 184, 185, 186, 187, 188, 189, 190, 191, 192
193, 194, 195, 196, 197, 198, 199, 200, 201, 202, 203, 204, 205, 206, 207, 208
209, 210, 211, 212, 213, 214, 215, 216, 217, 218, 219, 220, 221, 222, 223, 224
225, 226, 227, 228, 229, 230, 231, 232, 233, 234, 235, 236, 237, 238, 239, 240
241, 242, 243, 244, 245, 246, 247, 248, 249, 250, 251, 252, 253, 254, 255, 256
257, 258, 259, 260, 261, 262, 263, 264, 265, 266, 267, 268, 269, 270, 271, 272
273, 274, 275, 276, 277, 278, 279, 280, 281, 282, 283, 284, 285, 286, 287, 288
289, 290, 291, 292, 293, 294, 295, 296, 297, 298, 299, 300, 301, 302, 303, 304
305, 306, 307, 308, 309, 310, 311, 312, 313, 314, 315, 316, 317, 318, 319, 320
** ... 100 like lines cut
*ELSET, ELSET=EALL
1, 2, 3, 4, 5, 6, 7, 8, 9, 10, 11, 12, 13, 14, 15, 16
17, 18, 19, 20, 21, 22, 23, 24, 25, 26, 27, 28, 29, 30, 31, 32
33, 34, 35, 36, 37, 38, 39, 40, 41, 42, 43, 44, 45, 46, 47, 48
49, 50, 51, 52, 53, 54, 55, 56, 57, 58, 59, 60, 61, 62, 63, 64
65, 66, 67, 68, 69, 70, 71, 72, 73, 74, 75, 76, 77, 78, 79, 80
81, 82, 83, 84, 85, 86, 87, 88, 89, 90, 91, 92, 93, 94, 95, 96
97, 98, 99, 100, 101, 102, 103, 104, 105, 106, 107, 108, 109, 110, 111, 112
113, 114, 115, 116, 117, 118, 119, 120, 121, 122, 123, 124, 125, 126, 127, 128
129, 130, 131, 132, 133, 134, 135, 136, 137, 138, 139, 140, 141, 142, 143, 144
145, 146, 147, 148, 149, 150, 151, 152, 153, 154, 155, 156, 157, 158, 159, 160
161, 162, 163, 164, 165, 166, 167, 168, 169, 170, 171, 172, 173, 174, 175, 176
177, 178, 179, 180, 181, 182, 183, 184, 185, 186, 187, 188, 189, 190, 191, 192
193, 194, 195, 196, 197, 198, 199, 200, 201, 202, 203, 204, 205, 206, 207, 208
209, 210, 211, 212, 213, 214, 215, 216, 217, 218, 219, 220, 221, 222, 223, 224
225, 226, 227, 228, 229, 230, 231, 232, 233, 234, 235, 236, 237, 238, 239, 240
241, 242, 243, 244, 245, 246, 247, 248, 249, 250, 251, 252, 253, 254, 255, 256
257, 258, 259, 260, 261, 262, 263, 264, 265, 266, 267, 268, 269, 270, 271, 272
273, 274, 275, 276, 277, 278, 279, 280, 281, 282, 283, 284, 285, 286, 287, 288
289, 290, 291, 292, 293, 294, 295, 296, 297, 298, 299, 300, 301, 302, 303, 304
305, 306, 307, 308, 309, 310, 311, 312, 313, 314, 315, 316, 317, 318, 319, 320
** ... 180 like lines cut
*NSET, NSET=LEFT_SUPPORT
1, 2, 3, 4, 5, 6, 7, 8, 9, 10, 11, 12, 13, 1054, 1055, 1056
1057, 1058, 1059, 1060, 1061, 1062, 1063, 1064, 1065, 1066, 2107, 2108, 2109, 2110, 2111, 2112
2113, 2114, 2115, 2116, 2117, 2118, 2119, 2120, 2121
*NSET, NSET=RIGHT_SUPPORT
1041, 1042, 1043, 1044, 1045, 1046, 1047, 1048, 1049, 1050, 1051, 1052, 1053, 2094, 2095, 2096
2097, 2098, 2099, 2100, 2101, 2102, 2103, 2104, 2105, 2106, 3307, 3308, 3309, 3310, 3311, 3312
3313, 3314, 3315, 3316, 3317, 3318, 3319, 3320, 3321
*NSET, NSET=LEFT_WEB_MID_ANCHOR
2114
*NSET, NSET=MIDSPAN_TOP_LOAD_LINE
521, 522, 523, 524, 525, 526, 527, 528, 529, 530, 531, 532, 533
*NSET, NSET=MIDSPAN_WEB_MID
2714
**
*MATERIAL, NAME=A992_IDEALIZED
*ELASTIC
29000, 0.3
*PLASTIC
50, 0
55, 0.01
60, 0.05
65, 0.12
70, 0.18
**
*SHELL SECTION, ELSET=TOP_FLANGE, MATERIAL=A992_IDEALIZED
0.5
*SHELL SECTION, ELSET=BOTTOM_FLANGE, MATERIAL=A992_IDEALIZED
0.5
*SHELL SECTION, ELSET=WEB, MATERIAL=A992_IDEALIZED
0.3
**
*STEP, NAME=LTB_BENDING, NLGEOM=YES, INC=300
*STATIC
0.005, 1.0, 1e-8, 0.020
** End-braced simply-supported style constraints.
** U2 = lateral displacement, U3 = vertical displacement.
*BOUNDARY
LEFT_SUPPORT, 2, 2, 0.0
RIGHT_SUPPORT, 2, 2, 0.0
LEFT_SUPPORT, 3, 3, 0.0
RIGHT_SUPPORT, 3, 3, 0.0
LEFT_WEB_MID_ANCHOR, 1, 1, 0.0
** Displacement-controlled flexural loading at top flange midspan.
*BOUNDARY
MIDSPAN_TOP_LOAD_LINE, 3, 3, -4
**
*NODE FILE
U, RF
*EL FILE
S, E, PE, PEEQ
**
*NODE PRINT, NSET=MIDSPAN_TOP_LOAD_LINE, TOTALS=YES
RF
*NODE PRINT, NSET=LEFT_SUPPORT, TOTALS=YES
RF
*NODE PRINT, NSET=RIGHT_SUPPORT, TOTALS=YES
RF
*END STEP
