SUMMARY OF JOB INFORMATION
  STEP      INC     ATT  ITRS     TOT TIME     STEP TIME      INC TIME
     1          1     1     3  0.500000E-02  0.500000E-02  0.500000E-02
     1          2     1     3  0.100000E-01  0.100000E-01  0.500000E-02
     1          3     1     3  0.175000E-01  0.175000E-01  0.750000E-02
     1          4     1     3  0.287500E-01  0.287500E-01  0.112500E-01
     1          5     1     3  0.456250E-01  0.456250E-01  0.168750E-01
     1          6     1     4  0.656250E-01  0.656250E-01  0.200000E-01
     1          7     1     4  0.856250E-01  0.856250E-01  0.200000E-01
     1          8     1     5  0.105625E+00  0.105625E+00  0.200000E-01
     1          9     1     6  0.125625E+00  0.125625E+00  0.200000E-01
     1         10     1U    8  0.125625E+00  0.125625E+00  0.200000E-01
     1         10     2     6  0.135625E+00  0.135625E+00  0.100000E-01
     1         11     1     6  0.145625E+00  0.145625E+00  0.100000E-01
     1         12     1     7  0.155625E+00  0.155625E+00  0.100000E-01
     1         13     1U    6  0.155625E+00  0.155625E+00  0.100000E-01
     1         13     2     3  0.158125E+00  0.158125E+00  0.250000E-02
     1         14     1     3  0.160625E+00  0.160625E+00  0.250000E-02
     1         15     1     3  0.164375E+00  0.164375E+00  0.375000E-02
     1         16     1     4  0.170000E+00  0.170000E+00  0.562500E-02
     1         17     1     6  0.178438E+00  0.178438E+00  0.843750E-02
     1         18     1     6  0.186875E+00  0.186875E+00  0.843750E-02
     1         19     1     5  0.195312E+00  0.195312E+00  0.843750E-02
     1         20     1     4  0.203750E+00  0.203750E+00  0.843750E-02
     1         21     1     4  0.212187E+00  0.212187E+00  0.843750E-02
     1         22     1     5  0.224844E+00  0.224844E+00  0.126563E-01
     1         23     1     5  0.237500E+00  0.237500E+00  0.126563E-01
     1         24     1     4  0.250156E+00  0.250156E+00  0.126563E-01
     1         25     1     4  0.262812E+00  0.262812E+00  0.126563E-01
     1         26     1     5  0.281797E+00  0.281797E+00  0.189844E-01
     1         27     1     5  0.300781E+00  0.300781E+00  0.189844E-01
     1         28     1     4  0.319766E+00  0.319766E+00  0.189844E-01
     1         29     1     4  0.338750E+00  0.338750E+00  0.189844E-01
     1         30     1     4  0.358750E+00  0.358750E+00  0.200000E-01
     1         31     1     4  0.378750E+00  0.378750E+00  0.200000E-01
     1         32     1     4  0.398750E+00  0.398750E+00  0.200000E-01
     1         33     1     4  0.418750E+00  0.418750E+00  0.200000E-01
     1         34     1     4  0.438750E+00  0.438750E+00  0.200000E-01
     1         35     1     4  0.458750E+00  0.458750E+00  0.200000E-01
     1         36     1     4  0.478750E+00  0.478750E+00  0.200000E-01
     1         37     1     4  0.498750E+00  0.498750E+00  0.200000E-01
     1         38     1     4  0.518750E+00  0.518750E+00  0.200000E-01
     1         39     1     4  0.538750E+00  0.538750E+00  0.200000E-01
     1         40     1     4  0.558750E+00  0.558750E+00  0.200000E-01
     1         41     1     4  0.578750E+00  0.578750E+00  0.200000E-01
     1         42     1     3  0.598750E+00  0.598750E+00  0.200000E-01
     1         43     1     3  0.618750E+00  0.618750E+00  0.200000E-01
     1         44     1     3  0.638750E+00  0.638750E+00  0.200000E-01
     1         45     1     3  0.658750E+00  0.658750E+00  0.200000E-01
     1         46     1     3  0.678750E+00  0.678750E+00  0.200000E-01
     1         47     1     3  0.698750E+00  0.698750E+00  0.200000E-01
     1         48     1     3  0.718750E+00  0.718750E+00  0.200000E-01
     1         49     1     3  0.738750E+00  0.738750E+00  0.200000E-01
     1         50     1     3  0.758750E+00  0.758750E+00  0.200000E-01
     1         51     1     3  0.778750E+00  0.778750E+00  0.200000E-01
     1         52     1     3  0.798750E+00  0.798750E+00  0.200000E-01
     1         53     1     3  0.818750E+00  0.818750E+00  0.200000E-01
     1         54     1     4  0.838750E+00  0.838750E+00  0.200000E-01
     1         55     1     3  0.858750E+00  0.858750E+00  0.200000E-01
     1         56     1     3  0.878750E+00  0.878750E+00  0.200000E-01
     1         57     1     3  0.898750E+00  0.898750E+00  0.200000E-01
     1         58     1     3  0.918750E+00  0.918750E+00  0.200000E-01
     1         59     1     3  0.938750E+00  0.938750E+00  0.200000E-01
     1         60     1     3  0.958750E+00  0.958750E+00  0.200000E-01
     1         61     1     3  0.978750E+00  0.978750E+00  0.200000E-01
     1         62     1     3  0.998750E+00  0.998750E+00  0.200000E-01
     1         63     1     2  0.100000E+01  0.100000E+01  0.125000E-02
